echo "EXECUTE GIT and GITHUBWEBHOOK"
new line..
